data_image0
_chemical_formula_structural       Ca4Ti4Si4O20
_chemical_formula_sum              "Ca4 Ti4 Si4 O20"
_cell_length_a       7.0572
_cell_length_b       6.5534
_cell_length_c       8.7108
_cell_angle_alpha    90
_cell_angle_beta     90
_cell_angle_gamma    113.786

_space_group_name_H-M_alt    "P 1"
_space_group_IT_number       1

loop_
  _space_group_symop_operation_xyz
  'x, y, z'

loop_
  _atom_site_type_symbol
  _atom_site_label
  _atom_site_symmetry_multiplicity
  _atom_site_fract_x
  _atom_site_fract_y
  _atom_site_fract_z
  _atom_site_occupancy
  Ca  Ca1       1.0  0.23900  0.75000  0.91300  1.0000
  Ca  Ca2       1.0  0.26100  0.25000  0.41300  1.0000
  Ca  Ca3       1.0  0.76100  0.25000  0.08700  1.0000
  Ca  Ca4       1.0  0.73900  0.75000  0.58700  1.0000
  Ti  Ti1       1.0  0.52700  0.24600  0.75300  1.0000
  Ti  Ti2       1.0  0.97300  0.75400  0.25300  1.0000
  Ti  Ti3       1.0  0.47300  0.75400  0.24700  1.0000
  Ti  Ti4       1.0  0.02700  0.24600  0.74700  1.0000
  Si  Si1       1.0  0.75900  0.77400  0.93400  1.0000
  Si  Si2       1.0  0.74100  0.22600  0.43400  1.0000
  Si  Si3       1.0  0.24100  0.22600  0.06600  1.0000
  Si  Si4       1.0  0.25900  0.77400  0.56600  1.0000
  O   O1        1.0  0.76600  0.27000  0.81000  1.0000
  O   O2        1.0  0.73400  0.73000  0.31000  1.0000
  O   O3        1.0  0.23400  0.73000  0.19000  1.0000
  O   O4        1.0  0.26600  0.27000  0.69000  1.0000
  O   O5        1.0  0.89700  0.92800  0.80000  1.0000
  O   O6        1.0  0.60300  0.07200  0.30000  1.0000
  O   O7        1.0  0.10300  0.07200  0.20000  1.0000
  O   O8        1.0  0.39700  0.92800  0.70000  1.0000
  O   O9        1.0  0.35300  0.12500  0.94500  1.0000
  O   O10       1.0  0.14700  0.87500  0.44500  1.0000
  O   O11       1.0  0.64700  0.87500  0.05500  1.0000
  O   O12       1.0  0.85300  0.12500  0.55500  1.0000
  O   O13       1.0  0.89500  0.43600  0.33800  1.0000
  O   O14       1.0  0.60500  0.56400  0.83800  1.0000
  O   O15       1.0  0.10500  0.56400  0.66200  1.0000
  O   O16       1.0  0.39500  0.43600  0.16200  1.0000
  O   O17       1.0  0.37800  0.64600  0.46800  1.0000
  O   O18       1.0  0.12200  0.35400  0.96800  1.0000
  O   O19       1.0  0.62200  0.35400  0.53200  1.0000
  O   O20       1.0  0.87800  0.64600  0.03200  1.0000
